Circuit: * D:\NITR\VLSI\LT Spice CMOS\CMOS_Inverter.asc

Instance "m2": Width narrower than recommended for a level 3 MOSFET.
Instance "m1": Width narrower than recommended for a level 3 MOSFET.

Date: Thu Jul 17 00:49:00 2025
Total elapsed time: 0.027 seconds.

tnom = 27
temp = 27
method = trap
totiter = 1043
traniter = 0
tranpoints = 0
accept = 0
rejected = 0
matrix size = 5
fillins = 0
solver = Normal
Matrix Compiler1: 204 bytes object code size  0.1/0.0/[0.0]
Matrix Compiler2: off  [0.0]/0.0/0.0

