Circuit: * D:\NITR\VLSI\LT Spice CMOS\Full_Adder_2.asc

WARNING: Less than two connections to node COUT.  This node is used by A§I1.
WARNING: Less than two connections to node SUM.  This node is used by A§I2.
Direct Newton iteration for .op point succeeded.

Date: Thu Jul 17 20:27:45 2025
Total elapsed time: 0.343 seconds.

tnom = 27
temp = 27
method = modified trap
totiter = 4902
traniter = 4892
tranpoints = 2233
accept = 2021
rejected = 212
matrix size = 118
fillins = 0
solver = Normal
Thread vector: 42.1/24.9[2] 8.8/5.4[2] 1.9/2.4[1] 0.6/1.2[1]  2592/500
Matrix Compiler1: 14.71 KB object code size  5.7/1.5/[1.4]
Matrix Compiler2: 14.93 KB object code size  1.8/1.5/[1.2]

