LTspice 24.1.9 for Windows
Circuit: D:\NITR\VLSI\LT Spice CMOS\NMOS_Char.net
Start Time: Wed Jul 16 20:47:28 2025
solver = Normal
Maximum thread count: 12
tnom = 27
temp = 27
method = trap
.step vgin=0.6
.step vgin=0.666666666666667
.step vgin=0.733333333333333
.step vgin=0.8
Total elapsed time: 0.549 seconds.

Files loaded:
D:\NITR\VLSI\LT Spice CMOS\NMOS_Char.net
C:\Users\SONU\AppData\Local\LTspice\lib\cmp\standard.mos
D:\NITR\VLSI\LT Spice CMOS\65nm_bulk.txt

