Circuit: * D:\NITR\VLSI\LT Spice CMOS\PMOS_Char3.asc

Ignoring BSIM parameter XL
Ignoring BSIM parameter XW
Ignoring BSIM parameter ACM
Ignoring BSIM parameter LDIF
Ignoring BSIM parameter HDIF
Ignoring BSIM parameter CTA
Ignoring BSIM parameter CTP
Ignoring BSIM parameter PTA
Ignoring BSIM parameter PTP
Error on line 53 : .model pmos pmos level = 49 lint = 3.e-08 tox = 4.2e-09 vth0 = -1 rdsw = 450 lmin=1.8e-7 lmax=1.8e-7 wmin=1.8e-7 wmax=1.0e-4 tref=27.0 version =3.1 xj= 7.0000000e-08 nch= 5.9200000e+17 lln= 1.0000000 lwn= 1.0000000 wln= 0.00 wwn= 0.00 ll= 0.00 lw= 0.00 lwl= 0.00 wint= 0.00 wl= 0.00 ww= 0.00 wwl= 0.00 mobmod= 1 binunit= 2 xl= 0.00 xw= 0.00 binflag= 0 dwg= 0.00 dwb= 0.00 acm= 0 ldif=0.00 hdif=0.00 rsh= 0 rd= 0 rs= 0 rsc= 0 rdc= 0 k1= 0.5560000 k2= 0.00 k3= 0.00 dvt0= 11.2000000 dvt1= 0.7200000 dvt2= -1.0000000e-02 dvt0w= 0.00 dvt1w= 0.00 dvt2w= 0.00 nlx= 9.5000000e-08 w0= 0.00 k3b= 0.00 ngate= 5.0000000e+20 vsat= 1.0500000e+05 ua= -1.2000000e-10 ub= 1.0000000e-18 uc= -2.9999999e-11 prwb= 0.00 prwg= 0.00 wr= 1.0000000 u0= 8.0000000e-03 a0= 2.1199999 keta= 2.9999999e-02 a1= 0.00 a2= 0.4000000 ags= -0.1000000 b0= 0.00 b1= 0.00 voff= -6.40000000e-02 nfactor= 1.4000000 cit= 0.00 cdsc= 0.00 cdscb= 0.00 cdscd= 0.00 eta0= 8.5000000 etab= 0.00 dsub= 2.8000000 pclm= 2.0000000 pdiblc1= 0.1200000 pdiblc2= 8.0000000e-05 pdiblcb= 0.1450000 drout= 5.0000000e-02 pscbe1= 1.0000000e-20 pscbe2= 1.0000000e-20 pvag= -6.0000000e-02 delta= 1.0000000e-02 alpha0= 0.00 beta0= 30.0000000 kt1= -0.3700000 kt2= -4.0000000e-02 at= 5.5000000e+04 ute= -1.4800000 ua1= 9.5829000e-10 ub1= -3.3473000e-19 uc1= 0.00 kt1l= 4.0000000e-09 prt= 0.00 cj= 0.00138 mj= 1.05 pb= 1.24 cjsw= 1.44e-09 mjsw= 0.43 php= 0.841 cta= 0.00093 ctp= 0 pta= 0.00153 ptp= 0 js=1.50e-08 jsw=2.50e-13 n=1.0 xti=3.0 cgdo=2.786e-10 cgso=2.786e-10 cgbo=0.0e+00 capmod= 2 nqsmod= 0 elm= 5 xpart= 1 cgsl= 1.6e-10 cgdl= 1.6e-10 ckappa= 2.886 cf= 1.058e-10 clc= 0.0000001 cle= 0.6 dlc= 3e-08 dwc= 0 vfbcv= -1
	* Unrecognized parameter "binflag" -- ignored
	* Unrecognized parameter "rsc" -- ignored
	* Unrecognized parameter "rdc" -- ignored
Warning: Pd = 0 is less than W.
Warning: Ps = 0 is less than W.
.dc sweep increment has wrong sign -- fixing...
.step vgin=-5
.step vgin=-4
.step vgin=-3
.step vgin=-2
.step vgin=-1
.step vgin=0

Date: Wed Jul 16 23:49:26 2025
Total elapsed time: 0.119 seconds.

tnom = 27
temp = 27
method = trap
totiter = 1000
traniter = 0
tranpoints = 0
accept = 0
rejected = 0
matrix size = 4
fillins = 0
solver = Normal
Matrix Compiler1:       7 opcodes  0.0/[0.0]/0.0
Matrix Compiler2: off  [0.0]/0.0/0.0

